4
Water-F Dimer 1 from F Cluster 1
O 1.26025639 2.24284602 -1.14033973
H 1.67074990 1.75995728 -0.41646565
H 0.56972543 1.61936730 -1.45349328
F -0.65460231 0.41325523 -1.66981326
4
Water-F Dimer 2 from F Cluster 1
O -0.97523338 -1.78492465 1.89128853
H -0.06088187 -1.51778258 2.04197365
H -1.36682914 -0.96581495 1.54621747
F -0.65460231 0.41325523 -1.66981326
4
Water-F Dimer 3 from F Cluster 1
O 0.59704634 -1.73224077 -0.88475528
H -0.04997500 -2.09581496 -0.27030780
H 0.12527891 -0.96025374 -1.29664830
F -0.65460231 0.41325523 -1.66981326
4
Water-F Dimer 4 from F Cluster 1
O 1.40754772 0.04078922 1.19256780
H 0.53760897 0.46840114 1.13825903
H 1.37329437 -0.58064296 0.44099870
F -0.65460231 0.41325523 -1.66981326
4
Water-F Dimer 5 from F Cluster 1
O -1.39725848 0.74474888 0.66268219
H -1.15553341 0.62886178 -0.32788443
H -1.62196991 1.66913993 0.76764543
F -0.65460231 0.41325523 -1.66981326
4
Water-F Dimer 1 from F Cluster 2
O -2.77101774 -1.60570191 0.33809268
H -2.39999408 -0.71647360 0.43182817
H -1.98873549 -2.14531244 0.14376341
F 0.87937013 -0.57494928 0.18200284
4
Water-F Dimer 2 from F Cluster 2
O 0.43744382 3.16069251 -0.24827784
H -0.22081660 2.51506148 0.04735624
H 1.18676834 2.60229313 -0.50758861
F 0.87937013 -0.57494928 0.18200284
4
Water-F Dimer 3 from F Cluster 2
O -0.20588349 -2.84171827 -0.39593660
H 0.26593341 -1.99848412 -0.15239613
H -0.25468952 -2.80730472 -1.35221172
F 0.87937013 -0.57494928 0.18200284
4
Water-F Dimer 4 from F Cluster 2
O -1.14179789 0.84975536 0.74641517
H -1.11660011 0.92364111 1.70175642
H -0.33980846 0.28430766 0.52075529
F 0.87937013 -0.57494928 0.18200284
4
Water-F Dimer 5 from F Cluster 2
O 2.54583443 1.16280007 -0.73207903
H 3.13924869 1.27685361 0.01152782
H 1.92192519 0.44692871 -0.42775545
F 0.87937013 -0.57494928 0.18200284
4
Water-F Dimer 1 from F Cluster 3
O -2.68653326 0.35974763 -0.24924999
H -2.00999488 0.66998575 0.38323029
H -2.20352357 0.43143602 -1.08135438
F -0.32426566 0.92580981 1.04334153
4
Water-F Dimer 2 from F Cluster 3
O 2.26003464 0.91505225 0.68996968
H 1.30152720 0.94251384 0.94893267
H 2.28186482 1.47122486 -0.09245591
F -0.32426566 0.92580981 1.04334153
4
Water-F Dimer 3 from F Cluster 3
O -0.06627528 0.87147455 -1.66334225
H -0.15057460 1.01026599 -0.69618308
H 0.43223753 0.04304506 -1.70460221
F -0.32426566 0.92580981 1.04334153
4
Water-F Dimer 4 from F Cluster 3
O 1.55773058 -1.51420655 -0.82313972
H 0.78935822 -1.76072896 -0.27798815
H 1.98049478 -0.81691729 -0.29631081
F -0.32426566 0.92580981 1.04334153
4
Water-F Dimer 5 from F Cluster 3
O -0.70114809 -1.67659284 0.93766087
H -1.53550616 -1.59590748 0.46352831
H -0.49384437 -0.72694368 1.12012113
F -0.32426566 0.92580981 1.04334153
4
Water-F Dimer 1 from F Cluster 4
O -1.92820930 0.70177031 0.96691664
H -1.79980095 -0.25049335 0.81741048
H -1.62852361 1.09779545 0.12913697
F 0.30528723 -0.81645107 -1.59066644
4
Water-F Dimer 2 from F Cluster 4
O 0.73123654 0.21283042 2.16305610
H -0.13831501 0.55888342 1.90642308
H 1.27247453 0.31767689 1.36087361
F 0.30528723 -0.81645107 -1.59066644
4
Water-F Dimer 3 from F Cluster 4
O -0.70763439 1.55652470 -1.49006310
H -0.39902248 0.61826999 -1.62603027
H 0.09601596 2.00233340 -1.21162395
F 0.30528723 -0.81645107 -1.59066644
4
Water-F Dimer 4 from F Cluster 4
O -0.76507506 -1.92173810 0.55972333
H -0.15663052 -1.56310947 1.21849257
H -0.38895193 -1.59945582 -0.29594512
F 0.30528723 -0.81645107 -1.59066644
4
Water-F Dimer 5 from F Cluster 4
O 2.15568903 0.33779797 -0.33129076
H 2.92966878 -0.22570878 -0.34654534
H 1.45691155 -0.15937189 -0.86712295
F 0.30528723 -0.81645107 -1.59066644
4
Water-F Dimer 1 from F Cluster 5
O -1.73134301 -1.82422838 0.58359738
H -0.88223164 -1.88444511 1.04085068
H -1.70817424 -0.92006457 0.21719630
F -1.11745145 0.64537199 -0.49133909
4
Water-F Dimer 2 from F Cluster 5
O 1.19883022 -1.38199788 1.34222703
H 1.19257936 -1.33034562 0.37325304
H 0.99126945 -0.46829258 1.60427695
F -1.11745145 0.64537199 -0.49133909
4
Water-F Dimer 3 from F Cluster 5
O 0.84692452 2.22420674 -1.38028292
H 0.01987137 1.76425903 -1.11208585
H 1.36687607 1.51289142 -1.76198550
F -1.11745145 0.64537199 -0.49133909
4
Water-F Dimer 4 from F Cluster 5
O 0.54022876 -1.08597498 -1.50754633
H -0.10694771 -0.40681440 -1.17661026
H 0.01492603 -1.89036271 -1.49794002
F -1.11745145 0.64537199 -0.49133909
4
Water-F Dimer 5 from F Cluster 5
O 0.32104352 1.35349462 1.59632130
H 0.92940421 1.87691303 1.06506277
H -0.35159835 1.09253196 0.92087687
F -1.11745145 0.64537199 -0.49133909
4
Water-F Dimer 1 from F Cluster 6
O 0.10886627 1.19813152 -1.65299996
H 0.94157696 1.56390916 -1.33645432
H 0.20180991 0.25176752 -1.38071128
F 0.53369320 -1.16529667 -0.57590665
4
Water-F Dimer 2 from F Cluster 6
O -1.90717288 -1.67056698 0.18490313
H -1.72713087 -1.78393996 1.12111491
H -0.99852861 -1.56072809 -0.20107883
F 0.53369320 -1.16529667 -0.57590665
4
Water-F Dimer 3 from F Cluster 6
O 0.37218106 0.04280902 1.84759288
H -0.35886535 0.63452403 1.61911499
H 0.46229629 -0.49394875 1.03132749
F 0.53369320 -1.16529667 -0.57590665
4
Water-F Dimer 4 from F Cluster 6
O -1.92594756 1.26644377 0.37577253
H -2.13383429 0.32418653 0.26775180
H -1.29243788 1.43146991 -0.34526999
F 0.53369320 -1.16529667 -0.57590665
4
Water-F Dimer 5 from F Cluster 6
O 2.66426569 0.51449206 -0.06379108
H 2.10143458 -0.21671589 -0.38232042
H 2.24704637 0.70708383 0.78469360
F 0.53369320 -1.16529667 -0.57590665
4
Water-F Dimer 1 from F Cluster 7
O 0.59028309 1.55171556 -1.46804728
H 0.76103676 1.93478640 -0.59876122
H -0.32194365 1.19493495 -1.32766221
F -1.69075186 0.57382362 -0.60834399
4
Water-F Dimer 2 from F Cluster 7
O 1.03208656 -0.99090270 1.79312741
H 0.20399371 -1.36590108 1.45547588
H 1.55019679 -0.93081261 0.97454768
F -1.69075186 0.57382362 -0.60834399
4
Water-F Dimer 3 from F Cluster 7
O -1.01273372 -1.73869787 -0.08223963
H -1.34060090 -0.78902573 -0.30687180
H -1.74704385 -2.32170125 -0.27092818
F -1.69075186 0.57382362 -0.60834399
4
Water-F Dimer 4 from F Cluster 7
O -0.26072708 1.70364495 1.41783347
H 0.21532429 0.91509902 1.71364736
H -0.90702747 1.34732619 0.77264010
F -1.69075186 0.57382362 -0.60834399
4
Water-F Dimer 5 from F Cluster 7
O 1.65051847 -1.05485895 -1.05528260
H 1.40669038 -0.13804673 -1.28812898
H 0.78817999 -1.48344445 -0.94470533
F -1.69075186 0.57382362 -0.60834399
4
Water-F Dimer 1 from F Cluster 8
O 1.13017986 1.48052851 -1.93054550
H 1.14052001 0.83765681 -2.64103102
H 0.35747029 1.20089766 -1.37099788
F -0.79870997 0.56828631 -0.45879692
4
Water-F Dimer 2 from F Cluster 8
O -2.45168942 0.10687971 1.61110100
H -1.71107055 -0.12424128 2.17913803
H -1.99024593 0.43098179 0.80813801
F -0.79870997 0.56828631 -0.45879692
4
Water-F Dimer 3 from F Cluster 8
O -1.53653042 -2.03217974 -0.45364679
H -1.23329294 -1.12619402 -0.67087797
H -2.15815471 -1.84952101 0.25837564
F -0.79870997 0.56828631 -0.45879692
4
Water-F Dimer 4 from F Cluster 8
O 0.66262468 -0.66244956 1.35275757
H 0.17697153 -0.09240507 0.70711592
H 0.40557915 -1.54265721 1.06054599
F -0.79870997 0.56828631 -0.45879692
4
Water-F Dimer 5 from F Cluster 8
O 3.09061036 0.32590057 -0.04743901
H 2.42722891 -0.07801435 0.53061907
H 2.54953755 0.79970392 -0.69784905
F -0.79870997 0.56828631 -0.45879692
4
Water-F Dimer 1 from F Cluster 9
O -2.39726484 -0.85323119 1.30087379
H -2.28425998 0.09842817 1.38163894
H -1.52131593 -1.12531105 0.95230243
F -0.01004565 -1.07275985 0.08577385
4
Water-F Dimer 2 from F Cluster 9
O -1.91812832 -0.54154718 -1.76544994
H -1.11308165 -0.82685621 -1.28724028
H -2.58613565 -0.64666815 -1.08024065
F -0.01004565 -1.07275985 0.08577385
4
Water-F Dimer 3 from F Cluster 9
O -0.53620127 1.50275271 0.19828701
H -0.25603167 0.55483554 0.23759920
H -1.01888160 1.52311422 -0.63409125
F -0.01004565 -1.07275985 0.08577385
4
Water-F Dimer 4 from F Cluster 9
O 2.37561118 2.03649648 -0.02484234
H 2.55850326 1.08491857 -0.06366281
H 1.41051138 2.06650329 0.04464582
F -0.01004565 -1.07275985 0.08577385
4
Water-F Dimer 5 from F Cluster 9
O 2.57383198 -0.90231198 0.11531592
H 1.58825300 -1.02720713 0.06724076
H 2.77278825 -1.01426997 1.04593141
F -0.01004565 -1.07275985 0.08577385
4
Water-F Dimer 1 from F Cluster 10
O -0.12186108 0.92332833 -2.38993371
H 0.32453652 1.40014624 -1.67120936
H -0.95768625 0.64928744 -1.97577631
F -0.43637906 -0.03909886 1.04128727
4
Water-F Dimer 2 from F Cluster 10
O 1.30825469 -1.19414993 -0.71998678
H 0.97208734 -0.77869259 -1.52436117
H 0.67098578 -0.88077629 -0.04674538
F -0.43637906 -0.03909886 1.04128727
4
Water-F Dimer 3 from F Cluster 10
O -2.33884043 0.21239370 -0.66988558
H -1.64952122 0.05551077 0.03544225
H -2.76298830 1.02881935 -0.40261846
F -0.43637906 -0.03909886 1.04128727
4
Water-F Dimer 4 from F Cluster 10
O 1.18424477 1.81103581 0.09197007
H 1.90189101 1.19618689 -0.08874698
H 0.53717641 1.22664275 0.55755278
F -0.43637906 -0.03909886 1.04128727
4
Water-F Dimer 5 from F Cluster 10
O 0.28810097 -2.17663825 2.50196032
H -0.05415862 -1.36192874 2.07542653
H 0.84567973 -2.55408870 1.81828747
F -0.43637906 -0.03909886 1.04128727
